data_image0
_chemical_formula_structural       Ti10O20Ti10O20Ti10O20Ti10O20Ti10O20Ti10O20Ti10O20Ti10O21H2OH2OH2OH2OH2OH2OH2OH2OH2OH2OH2OH2OH2OH2OH2OH2OH2OH2OH2OH2OH2OH2OH2OH2OH2OH2OH2OH2OH2OH2OH2OH2OH2OH2OH2OH2OH2OH2OH2OH2OH2OH2OH2OH2OH2OH2OH2OH2OH2OH2OH2OH2OH2OH2OH2OH2OH2OH2OH2OH2OH2OH2OH2OH2OH2OH2OH2OH2OH2OH2OH2OH2OH2OH2OH2OH2OH2OH2OH2OH2OH2OH2OH2OH2OH2OH2OH2OH2OH2OH2OH2OH2OH2OH2OH2OH2OH2OH2OH2OH2OH2OH2OH2OH2OH2OH2OH2OH2OH2OH2OH2OH2OH2OH2OH2OH2OH2OH2OH2OH2OH2
_chemical_formula_sum              "Ti80 O281 H242"
_cell_length_a       11.836
_cell_length_b       12.994
_cell_length_c       38.53
_cell_angle_alpha    90
_cell_angle_beta     90
_cell_angle_gamma    90

_space_group_name_H-M_alt    "P 1"
_space_group_IT_number       1

loop_
  _space_group_symop_operation_xyz
  'x, y, z'

loop_
  _atom_site_type_symbol
  _atom_site_label
  _atom_site_symmetry_multiplicity
  _atom_site_fract_x
  _atom_site_fract_y
  _atom_site_fract_z
  _atom_site_occupancy
  Ti  Ti1       1.0  0.19291  0.42208  0.06138  1.0000
  Ti  Ti2       1.0  0.19367  0.19264  0.13671  1.0000
  Ti  Ti3       1.0  0.19633  0.43229  0.22650  1.0000
  Ti  Ti4       1.0  0.21036  0.18875  0.31620  1.0000
  Ti  Ti5       1.0  0.20524  0.42503  0.39556  1.0000
  Ti  Ti6       1.0  0.07496  0.17529  0.05225  1.0000
  Ti  Ti7       1.0  0.06811  0.45475  0.14341  1.0000
  Ti  Ti8       1.0  0.07578  0.18867  0.22888  1.0000
  Ti  Ti9       1.0  0.08989  0.43521  0.30934  1.0000
  Ti  Ti10      1.0  0.07295  0.18613  0.40784  1.0000
  O   O1        1.0  0.19601  0.18135  0.02164  1.0000
  O   O2        1.0  0.19284  0.43324  0.10929  1.0000
  O   O3        1.0  0.20616  0.20066  0.19177  1.0000
  O   O4        1.0  0.20830  0.43570  0.27817  1.0000
  O   O5        1.0  0.20027  0.18454  0.36417  1.0000
  O   O6        1.0  0.20589  0.18864  0.08835  1.0000
  O   O7        1.0  0.19898  0.43917  0.17618  1.0000
  O   O8        1.0  0.19762  0.18672  0.25897  1.0000
  O   O9        1.0  0.21305  0.43807  0.34389  1.0000
  O   O10       1.0  0.20615  0.18223  0.43298  1.0000
  O   O11       1.0  0.07546  0.03803  0.05680  1.0000
  O   O12       1.0  0.07422  0.28426  0.14360  1.0000
  O   O13       1.0  0.06811  0.03679  0.22968  1.0000
  O   O14       1.0  0.09912  0.28771  0.31385  1.0000
  O   O15       1.0  0.08066  0.03389  0.40306  1.0000
  O   O16       1.0  0.06773  0.34147  0.05415  1.0000
  O   O17       1.0  0.07662  0.09307  0.14188  1.0000
  O   O18       1.0  0.06796  0.34544  0.22593  1.0000
  O   O19       1.0  0.08232  0.09163  0.31298  1.0000
  O   O20       1.0  0.08261  0.33878  0.39969  1.0000
  Ti  Ti11      1.0  0.45255  0.45309  0.06018  1.0000
  Ti  Ti12      1.0  0.44544  0.18717  0.14084  1.0000
  Ti  Ti13      1.0  0.44407  0.43698  0.23304  1.0000
  Ti  Ti14      1.0  0.45614  0.19853  0.30744  1.0000
  Ti  Ti15      1.0  0.45769  0.43592  0.40187  1.0000
  Ti  Ti16      1.0  0.32260  0.18973  0.05114  1.0000
  Ti  Ti17      1.0  0.32699  0.43714  0.14470  1.0000
  Ti  Ti18      1.0  0.31697  0.18267  0.22488  1.0000
  Ti  Ti19      1.0  0.33682  0.44438  0.31589  1.0000
  Ti  Ti20      1.0  0.32630  0.17995  0.39753  1.0000
  O   O21       1.0  0.44801  0.17373  0.02141  1.0000
  O   O22       1.0  0.45256  0.44093  0.10849  1.0000
  O   O23       1.0  0.45218  0.18849  0.19282  1.0000
  O   O24       1.0  0.46039  0.42621  0.28212  1.0000
  O   O25       1.0  0.44935  0.17659  0.36680  1.0000
  O   O26       1.0  0.44806  0.18854  0.08700  1.0000
  O   O27       1.0  0.45406  0.43699  0.17271  1.0000
  O   O28       1.0  0.45134  0.18562  0.25893  1.0000
  O   O29       1.0  0.45987  0.43884  0.34769  1.0000
  O   O30       1.0  0.44881  0.18914  0.43356  1.0000
  O   O31       1.0  0.31982  0.03614  0.05821  1.0000
  O   O32       1.0  0.32696  0.28741  0.14134  1.0000
  O   O33       1.0  0.33494  0.03233  0.22640  1.0000
  O   O34       1.0  0.32948  0.28584  0.30915  1.0000
  O   O35       1.0  0.33792  0.02690  0.40191  1.0000
  O   O36       1.0  0.32522  0.33940  0.05778  1.0000
  O   O37       1.0  0.32434  0.08710  0.14154  1.0000
  O   O38       1.0  0.32658  0.34148  0.22734  1.0000
  O   O39       1.0  0.33768  0.08962  0.31158  1.0000
  O   O40       1.0  0.33500  0.33119  0.39587  1.0000
  Ti  Ti21      1.0  0.69636  0.43103  0.05817  1.0000
  Ti  Ti22      1.0  0.69788  0.19425  0.13678  1.0000
  Ti  Ti23      1.0  0.69647  0.43593  0.23132  1.0000
  Ti  Ti24      1.0  0.71288  0.18466  0.30820  1.0000
  Ti  Ti25      1.0  0.70867  0.43431  0.40605  1.0000
  Ti  Ti26      1.0  0.56518  0.18788  0.05149  1.0000
  Ti  Ti27      1.0  0.57383  0.43409  0.14151  1.0000
  Ti  Ti28      1.0  0.57427  0.18744  0.22331  1.0000
  Ti  Ti29      1.0  0.58724  0.43501  0.31586  1.0000
  Ti  Ti30      1.0  0.57734  0.19071  0.39504  1.0000
  O   O41       1.0  0.70718  0.18195  0.01827  1.0000
  O   O42       1.0  0.70325  0.43867  0.10784  1.0000
  O   O43       1.0  0.69652  0.19167  0.19220  1.0000
  O   O44       1.0  0.70843  0.43271  0.28195  1.0000
  O   O45       1.0  0.70644  0.17777  0.36907  1.0000
  O   O46       1.0  0.70422  0.18557  0.08988  1.0000
  O   O47       1.0  0.69652  0.43844  0.17678  1.0000
  O   O48       1.0  0.70528  0.18529  0.25998  1.0000
  O   O49       1.0  0.70998  0.43598  0.34901  1.0000
  O   O50       1.0  0.70290  0.18886  0.43944  1.0000
  O   O51       1.0  0.57442  0.03692  0.05906  1.0000
  O   O52       1.0  0.56966  0.28946  0.13982  1.0000
  O   O53       1.0  0.57896  0.03644  0.22385  1.0000
  O   O54       1.0  0.58036  0.28720  0.31258  1.0000
  O   O55       1.0  0.56759  0.03355  0.40778  1.0000
  O   O56       1.0  0.57426  0.33932  0.05478  1.0000
  O   O57       1.0  0.57303  0.09427  0.13928  1.0000
  O   O58       1.0  0.57714  0.34078  0.23020  1.0000
  O   O59       1.0  0.57929  0.09168  0.31074  1.0000
  O   O60       1.0  0.58966  0.33415  0.39906  1.0000
  Ti  Ti31      1.0  0.94971  0.44342  0.05913  1.0000
  Ti  Ti32      1.0  0.94653  0.19987  0.14486  1.0000
  Ti  Ti33      1.0  0.95237  0.44562  0.23101  1.0000
  Ti  Ti34      1.0  0.95571  0.18428  0.31837  1.0000
  Ti  Ti35      1.0  0.96329  0.44026  0.39540  1.0000
  Ti  Ti36      1.0  0.83401  0.18361  0.05711  1.0000
  Ti  Ti37      1.0  0.81141  0.44753  0.14492  1.0000
  Ti  Ti38      1.0  0.82671  0.19700  0.22482  1.0000
  Ti  Ti39      1.0  0.82628  0.43377  0.31684  1.0000
  Ti  Ti40      1.0  0.81985  0.19427  0.40935  1.0000
  O   O61       1.0  0.95109  0.19648  0.02298  1.0000
  O   O62       1.0  0.94955  0.44304  0.10691  1.0000
  O   O63       1.0  0.95702  0.18645  0.19247  1.0000
  O   O64       1.0  0.95774  0.44736  0.28143  1.0000
  O   O65       1.0  0.95587  0.18525  0.36569  1.0000
  O   O66       1.0  0.94511  0.19581  0.08965  1.0000
  O   O67       1.0  0.94910  0.44156  0.17308  1.0000
  O   O68       1.0  0.94792  0.19996  0.25894  1.0000
  O   O69       1.0  0.95873  0.43024  0.34723  1.0000
  O   O70       1.0  0.95238  0.18205  0.43706  1.0000
  O   O71       1.0  0.82507  0.03167  0.05634  1.0000
  O   O72       1.0  0.81919  0.29042  0.14443  1.0000
  O   O73       1.0  0.83177  0.04052  0.22678  1.0000
  O   O74       1.0  0.83403  0.28413  0.31070  1.0000
  O   O75       1.0  0.83805  0.03271  0.39828  1.0000
  O   O76       1.0  0.81888  0.34020  0.05784  1.0000
  O   O77       1.0  0.82677  0.09445  0.14284  1.0000
  O   O78       1.0  0.82907  0.34734  0.22842  1.0000
  O   O79       1.0  0.83931  0.09050  0.30795  1.0000
  O   O80       1.0  0.82744  0.34018  0.40410  1.0000
  Ti  Ti41      1.0  0.20320  0.93499  0.06187  1.0000
  Ti  Ti42      1.0  0.20741  0.69274  0.13939  1.0000
  Ti  Ti43      1.0  0.20043  0.94725  0.23130  1.0000
  Ti  Ti44      1.0  0.20827  0.69237  0.31543  1.0000
  Ti  Ti45      1.0  0.21439  0.93889  0.39545  1.0000
  Ti  Ti46      1.0  0.07121  0.68167  0.05109  1.0000
  Ti  Ti47      1.0  0.07809  0.93835  0.14415  1.0000
  Ti  Ti48      1.0  0.08064  0.69040  0.22985  1.0000
  Ti  Ti49      1.0  0.07323  0.94468  0.31619  1.0000
  Ti  Ti50      1.0  0.08778  0.69192  0.40181  1.0000
  O   O81       1.0  0.20116  0.69568  0.02150  1.0000
  O   O82       1.0  0.19614  0.93901  0.11074  1.0000
  O   O83       1.0  0.20402  0.68362  0.19206  1.0000
  O   O84       1.0  0.20558  0.94174  0.28195  1.0000
  O   O85       1.0  0.19776  0.67935  0.36247  1.0000
  O   O86       1.0  0.20164  0.69315  0.08716  1.0000
  O   O87       1.0  0.19643  0.93391  0.17743  1.0000
  O   O88       1.0  0.20432  0.69042  0.26078  1.0000
  O   O89       1.0  0.20930  0.95797  0.34876  1.0000
  O   O90       1.0  0.20098  0.67290  0.43134  1.0000
  O   O91       1.0  0.07697  0.52898  0.04688  1.0000
  O   O92       1.0  0.07486  0.78855  0.14137  1.0000
  O   O93       1.0  0.08439  0.53774  0.22893  1.0000
  O   O94       1.0  0.08541  0.79244  0.31303  1.0000
  O   O95       1.0  0.09330  0.53131  0.39957  1.0000
  O   O96       1.0  0.06958  0.84706  0.04846  1.0000
  O   O97       1.0  0.07052  0.59527  0.14290  1.0000
  O   O98       1.0  0.07702  0.83939  0.23028  1.0000
  O   O99       1.0  0.07547  0.59187  0.31300  1.0000
  O   O100      1.0  0.08254  0.83447  0.40414  1.0000
  Ti  Ti51      1.0  0.44723  0.93942  0.05973  1.0000
  Ti  Ti52      1.0  0.46052  0.68656  0.13444  1.0000
  Ti  Ti53      1.0  0.45971  0.92181  0.22455  1.0000
  Ti  Ti54      1.0  0.45729  0.69543  0.30955  1.0000
  Ti  Ti55      1.0  0.46690  0.92837  0.39842  1.0000
  Ti  Ti56      1.0  0.32658  0.68322  0.05183  1.0000
  Ti  Ti57      1.0  0.32147  0.93967  0.14553  1.0000
  Ti  Ti58      1.0  0.32613  0.68745  0.22415  1.0000
  Ti  Ti59      1.0  0.33009  0.94236  0.31042  1.0000
  Ti  Ti60      1.0  0.33757  0.67613  0.40081  1.0000
  O   O101      1.0  0.45175  0.69031  0.02084  1.0000
  O   O102      1.0  0.44073  0.93543  0.10853  1.0000
  O   O103      1.0  0.45320  0.69730  0.19376  1.0000
  O   O104      1.0  0.45494  0.93542  0.27693  1.0000
  O   O105      1.0  0.45435  0.67340  0.36311  1.0000
  O   O106      1.0  0.45845  0.68013  0.08679  1.0000
  O   O107      1.0  0.44240  0.93652  0.17495  1.0000
  O   O108      1.0  0.45482  0.70553  0.25992  1.0000
  O   O109      1.0  0.46000  0.94413  0.34779  1.0000
  O   O110      1.0  0.45064  0.69500  0.42956  1.0000
  O   O111      1.0  0.32292  0.53249  0.05316  1.0000
  O   O112      1.0  0.32338  0.78699  0.14072  1.0000
  O   O113      1.0  0.33253  0.53881  0.22718  1.0000
  O   O114      1.0  0.33043  0.78650  0.31504  1.0000
  O   O115      1.0  0.33346  0.52563  0.40170  1.0000
  O   O116      1.0  0.31444  0.84707  0.05223  1.0000
  O   O117      1.0  0.32820  0.59517  0.13983  1.0000
  O   O118      1.0  0.31797  0.84207  0.22607  1.0000
  O   O119      1.0  0.33993  0.59296  0.31239  1.0000
  O   O120      1.0  0.32477  0.84083  0.39754  1.0000
  Ti  Ti61      1.0  0.69386  0.94155  0.05408  1.0000
  Ti  Ti62      1.0  0.70313  0.69055  0.13716  1.0000
  Ti  Ti63      1.0  0.70727  0.95134  0.22406  1.0000
  Ti  Ti64      1.0  0.70764  0.68580  0.30716  1.0000
  Ti  Ti65      1.0  0.71325  0.94142  0.39689  1.0000
  Ti  Ti66      1.0  0.57708  0.69462  0.04859  1.0000
  Ti  Ti67      1.0  0.57305  0.94260  0.14113  1.0000
  Ti  Ti68      1.0  0.57792  0.69241  0.22226  1.0000
  Ti  Ti69      1.0  0.56643  0.94617  0.31141  1.0000
  Ti  Ti70      1.0  0.58269  0.69396  0.39114  1.0000
  O   O121      1.0  0.69805  0.69609  0.01817  1.0000
  O   O122      1.0  0.68811  0.93568  0.10974  1.0000
  O   O123      1.0  0.70285  0.68279  0.19186  1.0000
  O   O124      1.0  0.70030  0.93811  0.27844  1.0000
  O   O125      1.0  0.71092  0.68101  0.36304  1.0000
  O   O126      1.0  0.68619  0.68599  0.08798  1.0000
  O   O127      1.0  0.70208  0.94218  0.17502  1.0000
  O   O128      1.0  0.70201  0.69912  0.25865  1.0000
  O   O129      1.0  0.70580  0.93972  0.34762  1.0000
  O   O130      1.0  0.71266  0.70430  0.43239  1.0000
  O   O131      1.0  0.57717  0.53195  0.05094  1.0000
  O   O132      1.0  0.57192  0.78855  0.14234  1.0000
  O   O133      1.0  0.57484  0.54359  0.23048  1.0000
  O   O134      1.0  0.58641  0.78871  0.31433  1.0000
  O   O135      1.0  0.57800  0.54001  0.40249  1.0000
  O   O136      1.0  0.57110  0.85025  0.04732  1.0000
  O   O137      1.0  0.57706  0.59302  0.14109  1.0000
  O   O138      1.0  0.58778  0.84556  0.22415  1.0000
  O   O139      1.0  0.57740  0.59155  0.31360  1.0000
  O   O140      1.0  0.58996  0.84201  0.38938  1.0000
  Ti  Ti71      1.0  0.95089  0.92636  0.06008  1.0000
  Ti  Ti72      1.0  0.94999  0.69867  0.14012  1.0000
  Ti  Ti73      1.0  0.94783  0.92782  0.22945  1.0000
  Ti  Ti74      1.0  0.96263  0.69031  0.31618  1.0000
  Ti  Ti75      1.0  0.96147  0.92930  0.39724  1.0000
  Ti  Ti76      1.0  0.82581  0.67938  0.04943  1.0000
  Ti  Ti77      1.0  0.82677  0.94772  0.13954  1.0000
  Ti  Ti78      1.0  0.83593  0.68829  0.22455  1.0000
  Ti  Ti79      1.0  0.81858  0.93281  0.30951  1.0000
  Ti  Ti80      1.0  0.83788  0.68888  0.39707  1.0000
  O   O141      1.0  0.94691  0.67261  0.02040  1.0000
  O   O142      1.0  0.96115  0.93158  0.10891  1.0000
  O   O143      1.0  0.94903  0.69367  0.19011  1.0000
  O   O144      1.0  0.95324  0.94269  0.27940  1.0000
  O   O145      1.0  0.95845  0.68627  0.36395  1.0000
  O   O146      1.0  0.95492  0.68809  0.08754  1.0000
  O   O147      1.0  0.94359  0.94384  0.17380  1.0000
  O   O148      1.0  0.95809  0.68566  0.25815  1.0000
  O   O149      1.0  0.95603  0.93141  0.34625  1.0000
  O   O150      1.0  0.95506  0.67836  0.42900  1.0000
  O   O151      1.0  0.82240  0.53360  0.05626  1.0000
  O   O152      1.0  0.81873  0.79043  0.13738  1.0000
  O   O153      1.0  0.82539  0.53666  0.22836  1.0000
  O   O154      1.0  0.83703  0.79132  0.30851  1.0000
  O   O155      1.0  0.83292  0.53461  0.39829  1.0000
  O   O156      1.0  0.82454  0.83620  0.05744  1.0000
  O   O157      1.0  0.81982  0.59254  0.14228  1.0000
  O   O158      1.0  0.82260  0.84658  0.22674  1.0000
  O   O159      1.0  0.83367  0.59136  0.31178  1.0000
  O   O160      1.0  0.83069  0.83885  0.40253  1.0000
  O   O161      1.0  0.21992  0.92392  0.45815  1.0000
  H   H1        1.0  0.29421  0.93557  0.46356  1.0000
  H   H2        1.0  0.18090  0.98093  0.46960  1.0000
  O   O162      1.0  0.22022  0.40395  0.44848  1.0000
  H   H3        1.0  0.30478  0.41154  0.45574  1.0000
  H   H4        1.0  0.18211  0.44079  0.46862  1.0000
  O   O163      1.0  0.69958  0.91545  0.45206  1.0000
  H   H5        1.0  0.73514  0.84822  0.45597  1.0000
  H   H6        1.0  0.70585  0.96783  0.47185  1.0000
  O   O164      1.0  0.69006  0.43207  0.45418  1.0000
  H   H7        1.0  0.67503  0.36110  0.46170  1.0000
  H   H8        1.0  0.73546  0.52259  0.47746  1.0000
  O   O165      1.0  0.96131  0.94401  0.45373  1.0000
  H   H9        1.0  0.97099  0.00759  0.46578  1.0000
  H   H10       1.0  0.00849  0.89552  0.46435  1.0000
  O   O166      1.0  0.95499  0.44772  0.45462  1.0000
  H   H11       1.0  0.89564  0.50218  0.45889  1.0000
  H   H12       1.0  0.92013  0.38232  0.46738  1.0000
  O   O167      1.0  0.47200  0.87981  0.45173  1.0000
  H   H13       1.0  0.54895  0.89688  0.45831  1.0000
  H   H14       1.0  0.47834  0.80102  0.44973  1.0000
  O   O168      1.0  0.43519  0.40112  0.45060  1.0000
  H   H15       1.0  0.48062  0.44820  0.46410  1.0000
  H   H16       1.0  0.45903  0.25742  0.44611  1.0000
  O   O169      1.0  0.92195  0.94406  0.99863  1.0000
  H   H17       1.0  0.83510  0.92713  0.99831  1.0000
  H   H18       1.0  0.96411  0.89951  0.98298  1.0000
  O   O170      1.0  0.95162  0.39698  0.00285  1.0000
  H   H19       1.0  0.96880  0.32311  0.00275  1.0000
  H   H20       1.0  0.00451  0.44249  0.98969  1.0000
  O   O171      1.0  0.44245  0.94538  0.00267  1.0000
  H   H21       1.0  0.35879  0.94906  0.99874  1.0000
  H   H22       1.0  0.47170  0.88224  0.98927  1.0000
  O   O172      1.0  0.44148  0.42731  0.00607  1.0000
  H   H23       1.0  0.36401  0.42089  0.99868  1.0000
  H   H24       1.0  0.47415  0.47778  0.98990  1.0000
  O   O173      1.0  0.21673  0.96276  0.00316  1.0000
  H   H25       1.0  0.19656  0.03767  0.00250  1.0000
  H   H26       1.0  0.17293  0.90811  0.98433  1.0000
  O   O174      1.0  0.20755  0.40613  0.00077  1.0000
  H   H27       1.0  0.19155  0.46605  0.98493  1.0000
  H   H28       1.0  0.18488  0.33953  0.99111  1.0000
  O   O175      1.0  0.70804  0.96509  0.00371  1.0000
  H   H29       1.0  0.70647  0.11218  0.00669  1.0000
  H   H30       1.0  0.65700  0.93464  0.98743  1.0000
  O   O176      1.0  0.69868  0.44453  0.99713  1.0000
  H   H31       1.0  0.70970  0.38087  0.98436  1.0000
  H   H32       1.0  0.74186  0.49879  0.98290  1.0000
  O   O177      1.0  0.58667  0.73419  0.52882  1.0000
  H   H33       1.0  0.53442  0.77367  0.54387  1.0000
  H   H34       1.0  0.53368  0.69073  0.51388  1.0000
  O   O178      1.0  0.98558  0.17238  0.80764  1.0000
  H   H35       1.0  0.94025  0.20684  0.78868  1.0000
  H   H36       1.0  0.03176  0.22898  0.81469  1.0000
  O   O179      1.0  0.49912  0.39608  0.65809  1.0000
  H   H37       1.0  0.55379  0.39920  0.67506  1.0000
  H   H38       1.0  0.54366  0.37685  0.63665  1.0000
  O   O180      1.0  0.19991  0.46253  0.75582  1.0000
  H   H39       1.0  0.18095  0.38820  0.75367  1.0000
  H   H40       1.0  0.14527  0.49667  0.77158  1.0000
  O   O181      1.0  0.25000  0.67894  0.49749  1.0000
  H   H41       1.0  0.22613  0.69831  0.47268  1.0000
  H   H42       1.0  0.24433  0.74626  0.51115  1.0000
  O   O182      1.0  0.56479  0.16974  0.62010  1.0000
  H   H43       1.0  0.62631  0.21753  0.62902  1.0000
  H   H44       1.0  0.51969  0.21816  0.60638  1.0000
  O   O183      1.0  0.12652  0.76667  0.90830  1.0000
  H   H45       1.0  0.08607  0.72696  0.89174  1.0000
  H   H46       1.0  0.20602  0.78329  0.90413  1.0000
  O   O184      1.0  0.10766  0.82405  0.97411  1.0000
  H   H47       1.0  0.12402  0.81258  0.94716  1.0000
  H   H48       1.0  0.15247  0.77017  0.98728  1.0000
  O   O185      1.0  0.03973  0.10395  0.59449  1.0000
  H   H49       1.0  0.09919  0.10692  0.61178  1.0000
  H   H50       1.0  0.03175  0.03710  0.58441  1.0000
  O   O186      1.0  0.13806  0.07737  0.93021  1.0000
  H   H51       1.0  0.06707  0.09454  0.94439  1.0000
  H   H52       1.0  0.10525  0.03347  0.91118  1.0000
  O   O187      1.0  0.34003  0.08586  0.85538  1.0000
  H   H53       1.0  0.33726  0.05198  0.87996  1.0000
  H   H54       1.0  0.33201  0.16006  0.85172  1.0000
  O   O188      1.0  0.99214  0.87933  0.64481  1.0000
  H   H55       1.0  0.05979  0.85788  0.63206  1.0000
  H   H56       1.0  0.94701  0.93433  0.63107  1.0000
  O   O189      1.0  0.97789  0.75698  0.49643  1.0000
  H   H57       1.0  0.05239  0.72740  0.50014  1.0000
  H   H58       1.0  0.93836  0.72481  0.47606  1.0000
  O   O190      1.0  0.89079  0.29864  0.49008  1.0000
  H   H59       1.0  0.92190  0.30111  0.51233  1.0000
  H   H60       1.0  0.90437  0.23357  0.47504  1.0000
  O   O191      1.0  0.34550  0.81195  0.79071  1.0000
  H   H61       1.0  0.31704  0.76834  0.77048  1.0000
  H   H62       1.0  0.37594  0.87787  0.78216  1.0000
  O   O192      1.0  0.22818  0.75735  0.72356  1.0000
  H   H63       1.0  0.24911  0.83153  0.72465  1.0000
  H   H64       1.0  0.14334  0.75950  0.72229  1.0000
  O   O193      1.0  0.51759  0.55530  0.95489  1.0000
  H   H65       1.0  0.58517  0.59667  0.96170  1.0000
  H   H66       1.0  0.52383  0.55512  0.92884  1.0000
  O   O194      1.0  0.30011  0.96468  0.71202  1.0000
  H   H67       1.0  0.24342  0.01491  0.72223  1.0000
  H   H68       1.0  0.31532  0.00067  0.69001  1.0000
  O   O195      1.0  0.28778  0.50409  0.88616  1.0000
  H   H69       1.0  0.25425  0.51975  0.90901  1.0000
  H   H70       1.0  0.36914  0.49536  0.88917  1.0000
  O   O196      1.0  0.50933  0.25448  0.72098  1.0000
  H   H71       1.0  0.44513  0.26099  0.70580  1.0000
  H   H72       1.0  0.55770  0.31215  0.71576  1.0000
  O   O197      1.0  0.81062  0.66202  0.55565  1.0000
  H   H73       1.0  0.72609  0.66180  0.55858  1.0000
  H   H74       1.0  0.82390  0.69525  0.57908  1.0000
  O   O198      1.0  0.82251  0.39323  0.80794  1.0000
  H   H75       1.0  0.85849  0.35070  0.79058  1.0000
  H   H76       1.0  0.77855  0.34276  0.82073  1.0000
  O   O199      1.0  0.57283  0.37254  0.58496  1.0000
  H   H77       1.0  0.63592  0.41759  0.59613  1.0000
  H   H78       1.0  0.52102  0.39793  0.56775  1.0000
  O   O200      1.0  0.84488  0.93525  0.92260  1.0000
  H   H79       1.0  0.80039  0.99537  0.91168  1.0000
  H   H80       1.0  0.90796  0.91573  0.90673  1.0000
  O   O201      1.0  0.14713  0.06813  0.74757  1.0000
  H   H81       1.0  0.15821  0.04149  0.77199  1.0000
  H   H82       1.0  0.15420  0.14741  0.74805  1.0000
  O   O202      1.0  0.74581  0.94153  0.70820  1.0000
  H   H83       1.0  0.72757  0.87018  0.69790  1.0000
  H   H84       1.0  0.81094  0.92975  0.72379  1.0000
  O   O203      1.0  0.07039  0.07146  0.49625  1.0000
  H   H85       1.0  0.07965  0.03826  0.52037  1.0000
  H   H86       1.0  0.08817  0.14806  0.50058  1.0000
  O   O204      1.0  0.94872  0.63633  0.73584  1.0000
  H   H87       1.0  0.94076  0.66080  0.76195  1.0000
  H   H88       1.0  0.97488  0.69334  0.72038  1.0000
  O   O205      1.0  0.71421  0.77152  0.95582  1.0000
  H   H89       1.0  0.70550  0.75649  0.97992  1.0000
  H   H90       1.0  0.76726  0.82654  0.94922  1.0000
  O   O206      1.0  0.20446  0.26298  0.73773  1.0000
  H   H91       1.0  0.26874  0.23042  0.74996  1.0000
  H   H92       1.0  0.21664  0.25538  0.71152  1.0000
  O   O207      1.0  0.50071  0.41197  0.82781  1.0000
  H   H93       1.0  0.47869  0.44384  0.80715  1.0000
  H   H94       1.0  0.55838  0.36736  0.82303  1.0000
  O   O208      1.0  0.23407  0.09784  0.63393  1.0000
  H   H95       1.0  0.29247  0.05621  0.64672  1.0000
  H   H96       1.0  0.21439  0.16386  0.64720  1.0000
  O   O209      1.0  0.60967  0.85592  0.76590  1.0000
  H   H97       1.0  0.67256  0.88075  0.75084  1.0000
  H   H98       1.0  0.54533  0.90758  0.76660  1.0000
  O   O210      1.0  0.93967  0.11273  0.96073  1.0000
  H   H99       1.0  0.93833  0.14787  0.98239  1.0000
  H   H100      1.0  0.90946  0.04355  0.96796  1.0000
  O   O211      1.0  0.30698  0.02331  0.56826  1.0000
  H   H101      1.0  0.26474  0.04852  0.58804  1.0000
  H   H102      1.0  0.32398  0.09094  0.55681  1.0000
  O   O212      1.0  0.24121  0.53728  0.58241  1.0000
  H   H103      1.0  0.29623  0.49538  0.56867  1.0000
  H   H104      1.0  0.17031  0.51891  0.57238  1.0000
  O   O213      1.0  0.65494  0.24428  0.83139  1.0000
  H   H105      1.0  0.65961  0.25087  0.85658  1.0000
  H   H106      1.0  0.62609  0.17811  0.82362  1.0000
  O   O214      1.0  0.71656  0.14180  0.71521  1.0000
  H   H107      1.0  0.64113  0.15199  0.72361  1.0000
  H   H108      1.0  0.72502  0.06566  0.71117  1.0000
  O   O215      1.0  0.02575  0.83330  0.71060  1.0000
  H   H109      1.0  0.97810  0.86839  0.72795  1.0000
  H   H110      1.0  0.01824  0.87083  0.68866  1.0000
  O   O216      1.0  0.79272  0.56353  0.95122  1.0000
  H   H111      1.0  0.77523  0.53320  0.92765  1.0000
  H   H112      1.0  0.76470  0.63623  0.94942  1.0000
  O   O217      1.0  0.34737  0.81592  0.90401  1.0000
  H   H113      1.0  0.38813  0.78918  0.92528  1.0000
  H   H114      1.0  0.36186  0.89598  0.90839  1.0000
  O   O218      1.0  0.56479  0.64991  0.77342  1.0000
  H   H115      1.0  0.49186  0.61150  0.77620  1.0000
  H   H116      1.0  0.55742  0.72784  0.77240  1.0000
  O   O219      1.0  0.24671  0.56813  0.95850  1.0000
  H   H117      1.0  0.17221  0.59966  0.95601  1.0000
  H   H118      1.0  0.29164  0.61587  0.97313  1.0000
  O   O220      1.0  0.45388  0.06151  0.67171  1.0000
  H   H119      1.0  0.49778  0.99821  0.67056  1.0000
  H   H120      1.0  0.49803  0.10593  0.65380  1.0000
  O   O221      1.0  0.34769  0.28024  0.83006  1.0000
  H   H121      1.0  0.26705  0.30316  0.83088  1.0000
  H   H122      1.0  0.39957  0.34000  0.83402  1.0000
  O   O222      1.0  0.85536  0.27085  0.74669  1.0000
  H   H123      1.0  0.89447  0.28177  0.72478  1.0000
  H   H124      1.0  0.80011  0.21780  0.73880  1.0000
  O   O223      1.0  0.45756  0.31766  0.92914  1.0000
  H   H125      1.0  0.47528  0.36782  0.94762  1.0000
  H   H126      1.0  0.37035  0.31665  0.92675  1.0000
  O   O224      1.0  0.17959  0.26539  0.66523  1.0000
  H   H127      1.0  0.11156  0.27488  0.68048  1.0000
  H   H128      1.0  0.21103  0.33156  0.65550  1.0000
  O   O225      1.0  0.42891  0.98148  0.76732  1.0000
  H   H129      1.0  0.43178  0.05269  0.77225  1.0000
  H   H130      1.0  0.39543  0.97988  0.74375  1.0000
  O   O226      1.0  0.43544  0.07274  0.48617  1.0000
  H   H131      1.0  0.43236  0.10904  0.46381  1.0000
  H   H132      1.0  0.51907  0.07915  0.48985  1.0000
  O   O227      1.0  0.07630  0.55065  0.81492  1.0000
  H   H133      1.0  0.00872  0.59091  0.81193  1.0000
  H   H134      1.0  0.13871  0.59930  0.81625  1.0000
  O   O228      1.0  0.89072  0.86995  0.82228  1.0000
  H   H135      1.0  0.94675  0.90268  0.83810  1.0000
  H   H136      1.0  0.81316  0.89285  0.82722  1.0000
  O   O229      1.0  0.69197  0.07330  0.90030  1.0000
  H   H137      1.0  0.64229  0.10995  0.91825  1.0000
  H   H138      1.0  0.64208  0.06689  0.88028  1.0000
  O   O230      1.0  0.03214  0.63705  0.57712  1.0000
  H   H139      1.0  0.00085  0.59783  0.59670  1.0000
  H   H140      1.0  0.97794  0.64946  0.55954  1.0000
  O   O231      1.0  0.68814  0.75272  0.67398  1.0000
  H   H141      1.0  0.61479  0.78159  0.66931  1.0000
  H   H142      1.0  0.67134  0.69019  0.68871  1.0000
  O   O232      1.0  0.97640  0.30941  0.68895  1.0000
  H   H143      1.0  0.92292  0.28277  0.67100  1.0000
  H   H144      1.0  0.99023  0.38270  0.68534  1.0000
  O   O233      1.0  0.15942  0.77007  0.61605  1.0000
  H   H145      1.0  0.12131  0.71485  0.60255  1.0000
  H   H146      1.0  0.20529  0.73741  0.63581  1.0000
  O   O234      1.0  0.89157  0.16366  0.87010  1.0000
  H   H147      1.0  0.81509  0.14025  0.87615  1.0000
  H   H148      1.0  0.89220  0.17680  0.84455  1.0000
  O   O235      1.0  0.71437  0.99738  0.57464  1.0000
  H   H149      1.0  0.70403  0.06933  0.56882  1.0000
  H   H150      1.0  0.74511  0.95442  0.55513  1.0000
  O   O236      1.0  0.68829  0.39736  0.70506  1.0000
  H   H151      1.0  0.69924  0.47352  0.70944  1.0000
  H   H152      1.0  0.75176  0.36584  0.71916  1.0000
  O   O237      1.0  0.39850  0.41314  0.54264  1.0000
  H   H153      1.0  0.38575  0.33956  0.53399  1.0000
  H   H154      1.0  0.41356  0.45810  0.52385  1.0000
  O   O238      1.0  0.66416  0.31919  0.89801  1.0000
  H   H155      1.0  0.69546  0.28629  0.92101  1.0000
  H   H156      1.0  0.58247  0.32840  0.90421  1.0000
  O   O239      1.0  0.90069  0.67632  0.79990  1.0000
  H   H157      1.0  0.90694  0.74996  0.80976  1.0000
  H   H158      1.0  0.82116  0.66102  0.80849  1.0000
  O   O240      1.0  0.04747  0.52490  0.68498  1.0000
  H   H159      1.0  0.12730  0.52766  0.67929  1.0000
  H   H160      1.0  0.03102  0.55301  0.70893  1.0000
  O   O241      1.0  0.86251  0.03631  0.62454  1.0000
  H   H161      1.0  0.79944  0.02203  0.60842  1.0000
  H   H162      1.0  0.91342  0.08768  0.61567  1.0000
  O   O242      1.0  0.17094  0.26618  0.50825  1.0000
  H   H163      1.0  0.14901  0.32660  0.52116  1.0000
  H   H164      1.0  0.17096  0.28034  0.48252  1.0000
  O   O243      1.0  0.49352  0.11566  0.94959  1.0000
  H   H165      1.0  0.47947  0.18288  0.94048  1.0000
  H   H166      1.0  0.48138  0.12018  0.97452  1.0000
  O   O244      1.0  0.24886  0.81874  0.55024  1.0000
  H   H167      1.0  0.24211  0.79766  0.57610  1.0000
  H   H168      1.0  0.29267  0.88600  0.55367  1.0000
  O   O245      1.0  0.67458  0.87641  0.83080  1.0000
  H   H169      1.0  0.65225  0.86336  0.80611  1.0000
  H   H170      1.0  0.62261  0.83009  0.84335  1.0000
  O   O246      1.0  0.01605  0.99863  0.86519  1.0000
  H   H171      1.0  0.96040  0.05395  0.86980  1.0000
  H   H172      1.0  0.06347  0.01877  0.84634  1.0000
  O   O247      1.0  0.14259  0.50397  0.50792  1.0000
  H   H173      1.0  0.07020  0.52549  0.49810  1.0000
  H   H174      1.0  0.18837  0.56920  0.51046  1.0000
  O   O248      1.0  0.91316  0.95688  0.75732  1.0000
  H   H175      1.0  0.89204  0.92427  0.77885  1.0000
  H   H176      1.0  0.95048  0.02552  0.76436  1.0000
  O   O249      1.0  0.66889  0.07570  0.49196  1.0000
  H   H177      1.0  0.68672  0.12524  0.47211  1.0000
  H   H178      1.0  0.68453  0.11880  0.51237  1.0000
  O   O250      1.0  0.49403  0.78797  0.96107  1.0000
  H   H179      1.0  0.48127  0.74189  0.98188  1.0000
  H   H180      1.0  0.57335  0.77759  0.95392  1.0000
  O   O251      1.0  0.76520  0.23090  0.65289  1.0000
  H   H181      1.0  0.80777  0.16852  0.64353  1.0000
  H   H182      1.0  0.74264  0.19968  0.67417  1.0000
  O   O252      1.0  0.78352  0.47769  0.88721  1.0000
  H   H183      1.0  0.72602  0.41679  0.88964  1.0000
  H   H184      1.0  0.75190  0.51707  0.86669  1.0000
  O   O253      1.0  0.56081  0.04506  0.83418  1.0000
  H   H185      1.0  0.59337  0.96680  0.83173  1.0000
  H   H186      1.0  0.47802  0.05590  0.83727  1.0000
  O   O254      1.0  0.10226  0.33007  0.83449  1.0000
  H   H187      1.0  0.08763  0.39772  0.82348  1.0000
  H   H188      1.0  0.05523  0.33686  0.85566  1.0000
  O   O255      1.0  0.35487  0.18845  0.52990  1.0000
  H   H189      1.0  0.38250  0.14432  0.51078  1.0000
  H   H190      1.0  0.27536  0.20706  0.52346  1.0000
  O   O256      1.0  0.27530  0.64011  0.83807  1.0000
  H   H191      1.0  0.29485  0.71265  0.84117  1.0000
  H   H192      1.0  0.27879  0.59709  0.86041  1.0000
  O   O257      1.0  0.74992  0.59341  0.48709  1.0000
  H   H193      1.0  0.70387  0.65911  0.45198  1.0000
  H   H194      1.0  0.74853  0.59776  0.51220  1.0000
  O   O258      1.0  0.35569  0.00551  0.91700  1.0000
  H   H195      1.0  0.40936  0.04562  0.93191  1.0000
  H   H196      1.0  0.27401  0.03225  0.92235  1.0000
  O   O259      1.0  0.50537  0.90614  0.58447  1.0000
  H   H197      1.0  0.57336  0.94332  0.57951  1.0000
  H   H198      1.0  0.44994  0.95712  0.57740  1.0000
  O   O260      1.0  0.22073  0.28185  0.93423  1.0000
  H   H199      1.0  0.17006  0.33147  0.92246  1.0000
  H   H200      1.0  0.19107  0.21158  0.92764  1.0000
  O   O261      1.0  0.77368  0.87171  0.52531  1.0000
  H   H201      1.0  0.69500  0.83899  0.52167  1.0000
  H   H202      1.0  0.81496  0.80836  0.53338  1.0000
  O   O262      1.0  0.18540  0.98473  0.81744  1.0000
  H   H203      1.0  0.21918  0.91444  0.81594  1.0000
  H   H204      1.0  0.23529  0.02251  0.83246  1.0000
  O   O263      1.0  0.45811  0.60045  0.49267  1.0000
  H   H205      1.0  0.37870  0.61776  0.50010  1.0000
  H   H206      1.0  0.46517  0.61569  0.46789  1.0000
  O   O264      1.0  0.01741  0.56069  0.96495  1.0000
  H   H207      1.0  0.00899  0.60490  0.98639  1.0000
  H   H208      1.0  0.94293  0.56952  0.95496  1.0000
  O   O265      1.0  0.93892  0.29161  0.56518  1.0000
  H   H209      1.0  0.89885  0.33886  0.58389  1.0000
  H   H210      1.0  0.98961  0.24238  0.57749  1.0000
  O   O266      1.0  0.49035  0.76483  0.84940  1.0000
  H   H211      1.0  0.43004  0.78252  0.86590  1.0000
  H   H212      1.0  0.46060  0.76803  0.82511  1.0000
  O   O267      1.0  0.84967  0.72801  0.62105  1.0000
  H   H213      1.0  0.90726  0.77987  0.62749  1.0000
  H   H214      1.0  0.77669  0.73963  0.63753  1.0000
  O   O268      1.0  0.70578  0.19565  0.54942  1.0000
  H   H215      1.0  0.77704  0.23620  0.54976  1.0000
  H   H216      1.0  0.64355  0.24540  0.55724  1.0000
  O   O269      1.0  0.70758  0.57817  0.81564  1.0000
  H   H217      1.0  0.64527  0.60773  0.80175  1.0000
  H   H218      1.0  0.73704  0.51000  0.80771  1.0000
  O   O270      1.0  0.97778  0.35911  0.88865  1.0000
  H   H219      1.0  0.92873  0.29488  0.88744  1.0000
  H   H220      1.0  0.91940  0.41205  0.88700  1.0000
  O   O271      1.0  0.38947  0.53713  0.78466  1.0000
  H   H221      1.0  0.32699  0.49533  0.77278  1.0000
  H   H222      1.0  0.35047  0.57762  0.80300  1.0000
  O   O272      1.0  0.75532  0.23802  0.95578  1.0000
  H   H223      1.0  0.74040  0.22024  0.98043  1.0000
  H   H224      1.0  0.81851  0.19262  0.94902  1.0000
  O   O273      1.0  0.51029  0.55739  0.88543  1.0000
  H   H225      1.0  0.53072  0.51818  0.86561  1.0000
  H   H226      1.0  0.51067  0.62761  0.87964  1.0000
  O   O274      1.0  0.91242  0.53912  0.63387  1.0000
  H   H227      1.0  0.88382  0.60852  0.62856  1.0000
  H   H228      1.0  0.95872  0.55224  0.65412  1.0000
  O   O275      1.0  0.78260  0.39103  0.60787  1.0000
  H   H229      1.0  0.76712  0.33588  0.62567  1.0000
  H   H230      1.0  0.81915  0.44913  0.62260  1.0000
  O   O276      1.0  0.49810  0.83356  0.65794  1.0000
  H   H231      1.0  0.43413  0.79109  0.66436  1.0000
  H   H232      1.0  0.50048  0.84631  0.63100  1.0000
  O   O277      1.0  0.04486  0.92279  0.54797  1.0000
  H   H233      1.0  0.98463  0.88301  0.53646  1.0000
  H   H234      1.0  0.11120  0.87936  0.54834  1.0000
  O   O278      1.0  0.26826  0.47935  0.65383  1.0000
  H   H235      1.0  0.34813  0.45557  0.65730  1.0000
  H   H236      1.0  0.26495  0.47886  0.62570  1.0000
  O   O279      1.0  0.30680  0.70661  0.66585  1.0000
  H   H237      1.0  0.33605  0.63892  0.66482  1.0000
  H   H238      1.0  0.27022  0.72050  0.68891  1.0000
  O   O280      1.0  0.72850  0.59795  0.71925  1.0000
  H   H239      1.0  0.80804  0.61570  0.72781  1.0000
  H   H240      1.0  0.67930  0.60891  0.74078  1.0000
  O   O281      1.0  0.38756  0.18611  0.77279  1.0000
  H   H241      1.0  0.44622  0.21544  0.75748  1.0000
  H   H242      1.0  0.38351  0.22360  0.79525  1.0000
